12
Na6 Si6
Na -2.938100 -0.214774 1.848417
Na -1.655050 2.437083 -1.848417
Na -1.283051 -2.651856 -1.848417
Na 1.283051 2.651856 1.848417
Na 1.655050 -2.437083 1.848417
Na 2.938100 0.214774 -1.848417
Si -3.236150 -0.301463 -1.848417
Si -1.879150 2.651856 1.848417
Si -1.357000 -2.953319 1.848417
Si 1.357000 2.953319 -1.848417
Si 1.879150 -2.651856 -1.848417
Si 3.236150 0.301463 1.848417